<?xml version="1.0" encoding="ASCII"?>
<sima:SIMAWorkspace xmi:version="2.0" xmlns:xmi="http://www.omg.org/XMI" xmlns:xsi="http://www.w3.org/2001/XMLSchema-instance" xmlns:condition="http://marintek.no/schemas/sima/condition/r20" xmlns:environment="http://marintek.no/schemas/sima/environment/r23" xmlns:post="http://marintek.no/schemas/sima/post/r28" xmlns:riflex="http://marintek.no/schemas/sima/riflex/r44" xmlns:sima="http://marintek.no/schemas/sima/base/r25" xmlns:simo="http://marintek.no/schemas/sima/simo/r46" xmlns:workflow="http://marintek.no/schemas/sima/workflow/r20" xmi:id="_3Hd2UA-xEfCfHogST6KxKw" productId="4.8.0">
  <childFolders xmi:id="_l8HIIA-yEfCa7NM8Hz3FLg" name="IEA15MW_VolturnUS_S">
    <childTasks xsi:type="riflex:RIFLEXTask" xmi:id="_l8HIIQ-yEfCa7NM8Hz3FLg" description="Check the controller paths! " name="IEA15MW_VolturnUS_S1" runNumber="1506">
      <doubleVariables xmi:id="_l8HIIg-yEfCa7NM8Hz3FLg" description="8 deg +- env_dir" name="Yaw_Misalignment" unit="deg"/>
      <doubleVariables xmi:id="_l8HIIw-yEfCa7NM8Hz3FLg" name="timeStep" value="0.25" unit="s"/>
      <doubleVariables xmi:id="_l8HIJA-yEfCa7NM8Hz3FLg" description="Factor for blade torsional stiffness. OpenFAST does not include blade torsion. " name="torsStiffFac" value="1.0"/>
      <doubleVariables xmi:id="_l8HIJQ-yEfCa7NM8Hz3FLg" name="LPP" value="80.8" unit="m"/>
      <doubleVariables xmi:id="_l8HIJg-yEfCa7NM8Hz3FLg" name="Draught" value="5.769" unit="L"/>
      <doubleVariables xmi:id="_l8HIJw-yEfCa7NM8Hz3FLg" name="Hs" value="4.0" unit="L"/>
      <doubleVariables xmi:id="_l8HIKA-yEfCa7NM8Hz3FLg" name="Tp" value="13.0" unit="T"/>
      <doubleVariables xmi:id="_l8HIKQ-yEfCa7NM8Hz3FLg" name="WavDir" unit="R"/>
      <doubleVariables xmi:id="_l8HIKg-yEfCa7NM8Hz3FLg" name="WinVel" unit="L/T"/>
      <doubleVariables xmi:id="_l8HIKw-yEfCa7NM8Hz3FLg" name="WinDir" unit="R"/>
      <doubleVariables xmi:id="_l8HILA-yEfCa7NM8Hz3FLg" name="CurVel_0" value="0.3" unit="L/T"/>
      <doubleVariables xmi:id="_l8HILQ-yEfCa7NM8Hz3FLg" name="CurVel_15" value="0.279" unit="L/T"/>
      <doubleVariables xmi:id="_l8HILg-yEfCa7NM8Hz3FLg" name="CurVel_24" value="0.225" unit="L/T"/>
      <doubleVariables xmi:id="_l8HILw-yEfCa7NM8Hz3FLg" name="CurDir_0" unit="R"/>
      <doubleVariables xmi:id="_l8HIMA-yEfCa7NM8Hz3FLg" name="CurDir_15" unit="R"/>
      <doubleVariables xmi:id="_l8HIMQ-yEfCa7NM8Hz3FLg" name="CurDir_24" unit="R"/>
      <doubleVariables xmi:id="_l8HIMg-yEfCa7NM8Hz3FLg" name="SimLen" value="7500.0" unit="T"/>
      <doubleVariables xmi:id="_l8HIMw-yEfCa7NM8Hz3FLg" name="Heading" value="180.0" unit="R"/>
      <doubleVariables xmi:id="_l8HINA-yEfCa7NM8Hz3FLg" name="Seed" value="1.0"/>
      <doubleVariables xmi:id="_l8HINQ-yEfCa7NM8Hz3FLg" name="floaterSF_extra" value="760000.0" unit="N"/>
      <doubleVariables xmi:id="_l8HINg-yEfCa7NM8Hz3FLg" name="Xref" value="25.875" unit="m"/>
      <doubleVariables xmi:id="_l8HINw-yEfCa7NM8Hz3FLg" name="Yref" value="-62.817" unit="m"/>
      <doubleVariables xmi:id="_l8HIOA-yEfCa7NM8Hz3FLg" name="Xhook" value="25.875"/>
      <doubleVariables xmi:id="_l8HIOQ-yEfCa7NM8Hz3FLg" name="Yhook" value="-44.817" unit="m"/>
      <doubleVariables xmi:id="_l8HIOg-yEfCa7NM8Hz3FLg" name="gangway_distance" value="22.0" unit="m"/>
      <integerVariables xmi:id="_l8HIOw-yEfCa7NM8Hz3FLg" name="seedWave" value="1"/>
      <integerVariables xmi:id="_l8HIPA-yEfCa7NM8Hz3FLg" name="seedWind" value="1"/>
      <integerVariables xmi:id="_l8HIPQ-yEfCa7NM8Hz3FLg" name="storageStep" value="80"/>
      <integerVariables xmi:id="_l8HIPg-yEfCa7NM8Hz3FLg" name="DpOff"/>
      <initialCondition xmi:id="_l8HIPw-yEfCa7NM8Hz3FLg" changeNumber="4" name="Initial1">
        <resultContainer xsi:type="riflex:RIFLEXResultContainer" xmi:id="_l8HIQA-yEfCa7NM8Hz3FLg" name="Results">
          <properties xmi:id="_l8HIQQ-yEfCa7NM8Hz3FLg" key="condition" value="Initial1"/>
          <properties xmi:id="_l8HIQg-yEfCa7NM8Hz3FLg" key="task" value="IEA15MW_VolturnUS_S1"/>
          <properties xmi:id="_l8HIQw-yEfCa7NM8Hz3FLg" key="Yaw_Misalignment" value="0.0 [deg]"/>
          <properties xmi:id="_l8HIRA-yEfCa7NM8Hz3FLg" key="timeStep" value="0.1 [s]"/>
          <properties xmi:id="_l8HIRQ-yEfCa7NM8Hz3FLg" key="floaterSF_extra" value="760000.0 [N]"/>
          <properties xmi:id="_l8HIRg-yEfCa7NM8Hz3FLg" key="simulationLength" value="4000.0 [s]"/>
          <properties xmi:id="_l8HIRw-yEfCa7NM8Hz3FLg" key="decayFmag" value="0.0 [N]"/>
          <properties xmi:id="_l8HISA-yEfCa7NM8Hz3FLg" key="decayVx" value="0.0 [?]"/>
          <properties xmi:id="_l8HISQ-yEfCa7NM8Hz3FLg" key="decayVz" value="1.0 [?]"/>
          <properties xmi:id="_l8HISg-yEfCa7NM8Hz3FLg" key="decayVy" value="0.0 [?]"/>
          <properties xmi:id="_l8HISw-yEfCa7NM8Hz3FLg" key="decayMmag" value="0.0 [N*m]"/>
          <properties xmi:id="_l8HITA-yEfCa7NM8Hz3FLg" key="UwConst" value="20.0 [m/s]"/>
          <properties xmi:id="_l8HITQ-yEfCa7NM8Hz3FLg" key="torsStiffFac" value="1.0 [-]"/>
          <properties xmi:id="_l8HITg-yEfCa7NM8Hz3FLg" key="doubleVariables" value="Yaw_Misalignment timeStep torsStiffFac LPP Draught Hs Tp WavDir WinVel WinDir CurVel_0 CurVel_15 CurVel_24 CurDir_0 CurDir_15 CurDir_24 SimLen Heading Seed floaterSF_extra Xref Yref Xhook Yhook gangway_distance"/>
          <properties xmi:id="_l8HITw-yEfCa7NM8Hz3FLg" key="seedWave" value="1"/>
          <properties xmi:id="_l8HIUA-yEfCa7NM8Hz3FLg" key="seedWind" value="1"/>
          <properties xmi:id="_l8HIUQ-yEfCa7NM8Hz3FLg" key="storageStep" value="80"/>
          <properties xmi:id="_l8HIUg-yEfCa7NM8Hz3FLg" key="integerVariables" value="seedWave seedWind storageStep DpOff"/>
          <properties xmi:id="_l8HIUw-yEfCa7NM8Hz3FLg" key="LPP" value="80.8 [m]"/>
          <properties xmi:id="_l8HIVA-yEfCa7NM8Hz3FLg" key="Draught" value="5.769 [L]"/>
          <properties xmi:id="_l8HIVQ-yEfCa7NM8Hz3FLg" key="Hs" value="2.0 [L]"/>
          <properties xmi:id="_l8HIVg-yEfCa7NM8Hz3FLg" key="Tp" value="13.0 [T]"/>
          <properties xmi:id="_l8HIVw-yEfCa7NM8Hz3FLg" key="WavDir" value="0.0 [R]"/>
          <properties xmi:id="_l8HIWA-yEfCa7NM8Hz3FLg" key="WinVel" value="1.0 [L/T]"/>
          <properties xmi:id="_l8HIWQ-yEfCa7NM8Hz3FLg" key="WinDir" value="0.0 [R]"/>
          <properties xmi:id="_l8HIWg-yEfCa7NM8Hz3FLg" key="CurVel_0" value="0.3 [L/T]"/>
          <properties xmi:id="_l8HIWw-yEfCa7NM8Hz3FLg" key="CurVel_15" value="0.279 [L/T]"/>
          <properties xmi:id="_l8HIXA-yEfCa7NM8Hz3FLg" key="CurVel_24" value="0.225 [L/T]"/>
          <properties xmi:id="_l8HIXQ-yEfCa7NM8Hz3FLg" key="CurDir_0" value="0.0 [R]"/>
          <properties xmi:id="_l8HIXg-yEfCa7NM8Hz3FLg" key="CurDir_15" value="0.0 [R]"/>
          <properties xmi:id="_l8HIXw-yEfCa7NM8Hz3FLg" key="CurDir_24" value="0.0 [R]"/>
          <properties xmi:id="_l8HIYA-yEfCa7NM8Hz3FLg" key="SimLen" value="10000.0 [T]"/>
          <properties xmi:id="_l8HIYQ-yEfCa7NM8Hz3FLg" key="Heading" value="90.0 [R]"/>
          <properties xmi:id="_l8HIYg-yEfCa7NM8Hz3FLg" key="Seed" value="1.0 [-]"/>
          <properties xmi:id="_l8HIYw-yEfCa7NM8Hz3FLg" key="DpOff" value="0"/>
          <properties xmi:id="_l8HIZA-yEfCa7NM8Hz3FLg" key="Xref" value="45.0 [m]"/>
          <properties xmi:id="_l8HIZQ-yEfCa7NM8Hz3FLg" key="Yref" value="-62.217 [m]"/>
          <properties xmi:id="_l8HIZg-yEfCa7NM8Hz3FLg" key="Xhook" value="25.875 [-]"/>
          <properties xmi:id="_l8HIZw-yEfCa7NM8Hz3FLg" key="Yhook" value="-44.817 [m]"/>
          <properties xmi:id="_l8HIaA-yEfCa7NM8Hz3FLg" key="gangway_distance" value="22.0 [m]"/>
        </resultContainer>
      </initialCondition>
      <conditions xsi:type="condition:ConditionSet" xmi:id="_v3QEABFREfCh_YJJ1irHJw" changeNumber="39" selection="_l8KL9w-yEfCa7NM8Hz3FLg" name="ConditionSet">
        <resultContainer xsi:type="condition:ConditionSetResultContainer" xmi:id="_Hf8MkBFSEfCh_YJJ1irHJw" name="Results">
          <properties xmi:id="_nyepACvvEfCt14FjEK_jxw" key="condition" value="ConditionSet"/>
          <properties xmi:id="_nyhFQCvvEfCt14FjEK_jxw" key="task" value="IEA15MW_VolturnUS_S1"/>
          <properties xmi:id="_nyiTYCvvEfCt14FjEK_jxw" key="Yaw_Misalignment" value="0.0 [deg]"/>
          <properties xmi:id="_nyjhgCvvEfCt14FjEK_jxw" key="timeStep" value="0.25 [s]"/>
          <properties xmi:id="_nykvoCvvEfCt14FjEK_jxw" key="torsStiffFac" value="1.0 [-]"/>
          <properties xmi:id="_nyl9wCvvEfCt14FjEK_jxw" key="LPP" value="80.8 [m]"/>
          <properties xmi:id="_nynL4CvvEfCt14FjEK_jxw" key="Draught" value="5.769 [L]"/>
          <properties xmi:id="_nyoaACvvEfCt14FjEK_jxw" key="WavDir" value="0.0 [R]"/>
          <properties xmi:id="_nypoICvvEfCt14FjEK_jxw" key="WinVel" value="0.0 [L/T]"/>
          <properties xmi:id="_nyq2QCvvEfCt14FjEK_jxw" key="WinDir" value="0.0 [R]"/>
          <properties xmi:id="_nysEYCvvEfCt14FjEK_jxw" key="CurVel_0" value="0.3 [L/T]"/>
          <properties xmi:id="_nytSgCvvEfCt14FjEK_jxw" key="CurVel_15" value="0.279 [L/T]"/>
          <properties xmi:id="_nyugoCvvEfCt14FjEK_jxw" key="CurVel_24" value="0.225 [L/T]"/>
          <properties xmi:id="_nyvuwCvvEfCt14FjEK_jxw" key="CurDir_0" value="0.0 [R]"/>
          <properties xmi:id="_nyw84CvvEfCt14FjEK_jxw" key="CurDir_15" value="0.0 [R]"/>
          <properties xmi:id="_nyyLACvvEfCt14FjEK_jxw" key="CurDir_24" value="0.0 [R]"/>
          <properties xmi:id="_nyyyECvvEfCt14FjEK_jxw" key="SimLen" value="7500.0 [T]"/>
          <properties xmi:id="_ny1OUCvvEfCt14FjEK_jxw" key="Heading" value="180.0 [R]"/>
          <properties xmi:id="_ny2ccCvvEfCt14FjEK_jxw" key="Seed" value="1.0 [-]"/>
          <properties xmi:id="_ny3qkCvvEfCt14FjEK_jxw" key="floaterSF_extra" value="760000.0 [N]"/>
          <properties xmi:id="_ny44sCvvEfCt14FjEK_jxw" key="Xref" value="25.875 [m]"/>
          <properties xmi:id="_ny6G0CvvEfCt14FjEK_jxw" key="Yref" value="-62.817 [m]"/>
          <properties xmi:id="_ny78ACvvEfCt14FjEK_jxw" key="Xhook" value="25.875 [-]"/>
          <properties xmi:id="_ny9KICvvEfCt14FjEK_jxw" key="Yhook" value="-44.817 [m]"/>
          <properties xmi:id="_ny-YQCvvEfCt14FjEK_jxw" key="gangway_distance" value="22.0 [m]"/>
          <properties xmi:id="_nzANcCvvEfCt14FjEK_jxw" key="doubleVariables" value="Yaw_Misalignment timeStep torsStiffFac LPP Draught WavDir WinVel WinDir CurVel_0 CurVel_15 CurVel_24 CurDir_0 CurDir_15 CurDir_24 SimLen Heading Seed floaterSF_extra Xref Yref Xhook Yhook gangway_distance"/>
          <resultContainers xsi:type="riflex:RIFLEXResultContainer" xmi:id="_HiQgwBFSEfCh_YJJ1irHJw" name="ConditionSet_1: Hs=3.0 Tp=9.0">
            <properties xmi:id="_HiQgwRFSEfCh_YJJ1irHJw" key="condition" value="ConditionSet_1"/>
            <properties xmi:id="_HjrdEBFSEfCh_YJJ1irHJw" key="Yaw_Misalignment" value="0.0 [deg]"/>
            <properties xmi:id="_Hjyx0BFSEfCh_YJJ1irHJw" key="timeStep" value="0.25 [s]"/>
            <properties xmi:id="_Hj9w8BFSEfCh_YJJ1irHJw" key="torsStiffFac" value="1.0 [-]"/>
            <properties xmi:id="_HkFFsBFSEfCh_YJJ1irHJw" key="LPP" value="80.8 [m]"/>
            <properties xmi:id="_HkLzYBFSEfCh_YJJ1irHJw" key="Draught" value="5.769 [L]"/>
            <properties xmi:id="_HkR6ABFSEfCh_YJJ1irHJw" key="Hs" value="3.0 [L]"/>
            <properties xmi:id="_HkptcBFSEfCh_YJJ1irHJw" key="Tp" value="9.0 [T]"/>
            <properties xmi:id="_Hk6MIBFSEfCh_YJJ1irHJw" key="WavDir" value="0.0 [R]"/>
            <properties xmi:id="_HlCH8BFSEfCh_YJJ1irHJw" key="WinVel" value="0.0 [L/T]"/>
            <properties xmi:id="_HlI1oBFSEfCh_YJJ1irHJw" key="WinDir" value="0.0 [R]"/>
            <properties xmi:id="_HlOVMBFSEfCh_YJJ1irHJw" key="CurVel_0" value="0.3 [L/T]"/>
            <properties xmi:id="_HlVC4BFSEfCh_YJJ1irHJw" key="CurVel_15" value="0.279 [L/T]"/>
            <properties xmi:id="_HlbwkBFSEfCh_YJJ1irHJw" key="CurVel_24" value="0.225 [L/T]"/>
            <properties xmi:id="_HlgpEBFSEfCh_YJJ1irHJw" key="CurDir_0" value="0.0 [R]"/>
            <properties xmi:id="_HllhkBFSEfCh_YJJ1irHJw" key="CurDir_15" value="0.0 [R]"/>
            <properties xmi:id="_HlpzABFSEfCh_YJJ1irHJw" key="CurDir_24" value="0.0 [R]"/>
            <properties xmi:id="_HlsPQBFSEfCh_YJJ1irHJw" key="SimLen" value="7500.0 [T]"/>
            <properties xmi:id="_HlsPQRFSEfCh_YJJ1irHJw" key="Heading" value="180.0 [R]"/>
            <properties xmi:id="_Hl1ZMBFSEfCh_YJJ1irHJw" key="Seed" value="1.0 [-]"/>
            <properties xmi:id="_HmBmcBFSEfCh_YJJ1irHJw" key="floaterSF_extra" value="760000.0 [N]"/>
            <properties xmi:id="_HmBmcRFSEfCh_YJJ1irHJw" key="Xref" value="25.875 [m]"/>
            <properties xmi:id="_HmI7MBFSEfCh_YJJ1irHJw" key="Yref" value="-62.817 [m]"/>
            <properties xmi:id="_HmSsMBFSEfCh_YJJ1irHJw" key="Xhook" value="25.875 [-]"/>
            <properties xmi:id="_HmSsMRFSEfCh_YJJ1irHJw" key="Yhook" value="-44.817 [m]"/>
            <properties xmi:id="_HmcdMBFSEfCh_YJJ1irHJw" key="gangway_distance" value="22.0 [m]"/>
            <properties xmi:id="_HmmOMBFSEfCh_YJJ1irHJw" key="doubleVariables" value="Yaw_Misalignment timeStep torsStiffFac LPP Draught Hs Tp WavDir WinVel WinDir CurVel_0 CurVel_15 CurVel_24 CurDir_0 CurDir_15 CurDir_24 SimLen Heading Seed floaterSF_extra Xref Yref Xhook Yhook gangway_distance"/>
            <properties xmi:id="_HmmOMRFSEfCh_YJJ1irHJw" key="seedWave" value="1"/>
            <properties xmi:id="_Hmv_MBFSEfCh_YJJ1irHJw" key="seedWind" value="1"/>
            <properties xmi:id="_Hm-osBFSEfCh_YJJ1irHJw" key="storageStep" value="80"/>
            <properties xmi:id="_HnDhMBFSEfCh_YJJ1irHJw" key="DpOff" value="0"/>
            <properties xmi:id="_HnDhMRFSEfCh_YJJ1irHJw" key="integerVariables" value="seedWave seedWind storageStep DpOff"/>
            <static xmi:id="_wprTMCvvEfCt14FjEK_jxw" resource="IEA15MW_VolturnUS_S1\ConditionSet\1506-20250508093421\ConditionSet_1" relative="true" name="Static" changeNumber="1194324">
              <properties xmi:id="_wpr6QCvvEfCt14FjEK_jxw" key="runType" value="static"/>
              <properties xmi:id="_wpr6QSvvEfCt14FjEK_jxw" key="inputFile_hashes" value="C:\Users\marku\Documents\DT_prediction_model\DOLPHINN\SIMA_simulation\IEA15MW_VolturnUS_S1\_resources\T1.FEM=1743592015976,3779574;sima://Controller_IEA_Floating1\libdiscon_v260.dll=1743592015967,1122431;sima://Controller_IEA_Floating1\DISCON-UMaineSemi_v260.IN=1743592015957,17742;"/>
              <results xmi:id="_wpr6QivvEfCt14FjEK_jxw" resource="IEA15MW_VolturnUS_S1\ConditionSet\1506-20250508093421\ConditionSet_1\simo-static-results-sima.h5" relative="true" name="simo-static-results-sima.h5" type="simo_stamod_hdf5" time="1746696920109" size="12664"/>
              <results xsi:type="riflex:MatrixPlotResult" xmi:id="_wpshUCvvEfCt14FjEK_jxw" resource="IEA15MW_VolturnUS_S1\ConditionSet\1506-20250508093421\ConditionSet_1\sima_stamod.mpf" relative="true" name="sima_stamod.mpf" type="mpf" time="1746696920213" size="258867">
                <properties xmi:id="_wpshUSvvEfCt14FjEK_jxw" key="condition" value="ConditionSet_1"/>
              </results>
              <lisFile xmi:id="_wpshUivvEfCt14FjEK_jxw" resource="IEA15MW_VolturnUS_S1\ConditionSet\1506-20250508093421\ConditionSet_1\prs-sima.lis" relative="true" name="prs-sima.lis" type="text" time="1746696886786" size="640364" version="4.28.0.r687.7fa6b926e"/>
              <staticResult xmi:id="_wpshUyvvEfCt14FjEK_jxw" resource="IEA15MW_VolturnUS_S1\ConditionSet\1506-20250508093421\ConditionSet_1\psc-sima.lis" relative="true" name="psc-sima.lis" type="psc" time="1746696920101" size="14296"/>
              <riflexLDAT xmi:id="_wpshVCvvEfCt14FjEK_jxw" resource="IEA15MW_VolturnUS_S1\ConditionSet\1506-20250508093421\ConditionSet_1\sima_static_vis.ldat" relative="true" name="sima_static_vis.ldat" time="1746696920136" size="22699389">
                <properties xmi:id="_wpshVSvvEfCt14FjEK_jxw" key="loadstep_0" value="20;Volume Forces;Body Forces;Specified Displacements"/>
                <properties xmi:id="_wpshVivvEfCt14FjEK_jxw" key="nstep_loading" value="20"/>
                <properties xmi:id="_wpshVyvvEfCt14FjEK_jxw" key="n_loading" value="1"/>
              </riflexLDAT>
              <inpmodResFile xmi:id="_wpshWCvvEfCt14FjEK_jxw" resource="IEA15MW_VolturnUS_S1\ConditionSet\1506-20250508093421\ConditionSet_1\sima_inpmod.res" relative="true" name="sima_inpmod.res" type="text" time="1746696874013" size="216061" version="4.28.0.r687.7fa6b926e"/>
              <stamodResFile xmi:id="_wpshWSvvEfCt14FjEK_jxw" resource="IEA15MW_VolturnUS_S1\ConditionSet\1506-20250508093421\ConditionSet_1\sima_stamod.res" relative="true" name="sima_stamod.res" type="text" time="1746696920258" size="232341" version="4.28.0.r687.7fa6b926e"/>
            </static>
            <dynamic xmi:id="_MWjNcCvxEfCt14FjEK_jxw" resource="IEA15MW_VolturnUS_S1\ConditionSet\1506-20250508093421\ConditionSet_1" relative="true" name="Dynamic" changeNumber="1194324">
              <properties xmi:id="_MWjNcSvxEfCt14FjEK_jxw" key="runType" value="dynamic"/>
              <results xmi:id="_MWjNcivxEfCt14FjEK_jxw" resource="IEA15MW_VolturnUS_S1\ConditionSet\1506-20250508093421\ConditionSet_1\sima_elmfor.bin" relative="true" name="sima_elmfor.bin" time="1746697514221" size="39000"/>
              <results xmi:id="_MWjNcyvxEfCt14FjEK_jxw" resource="IEA15MW_VolturnUS_S1\ConditionSet\1506-20250508093421\ConditionSet_1\sima_noddis.bin" relative="true" name="sima_noddis.bin" time="1746697514221" size="1080000"/>
              <results xmi:id="_MWjNdCvxEfCt14FjEK_jxw" resource="IEA15MW_VolturnUS_S1\ConditionSet\1506-20250508093421\ConditionSet_1\sima_supportforce.bin" relative="true" name="sima_supportforce.bin" time="1746697514221" size="4320000"/>
              <results xmi:id="_MWjNdSvxEfCt14FjEK_jxw" resource="IEA15MW_VolturnUS_S1\ConditionSet\1506-20250508093421\ConditionSet_1\sima_witurb.bin" relative="true" name="sima_witurb.bin" time="1746697514221" size="3120000"/>
              <results xsi:type="riflex:MatrixPlotResult" xmi:id="_MWjNdivxEfCt14FjEK_jxw" resource="IEA15MW_VolturnUS_S1\ConditionSet\1506-20250508093421\ConditionSet_1\sima_dynmod.mpf" relative="true" name="sima_dynmod.mpf" type="mpf" time="1746697520167" size="111">
                <properties xmi:id="_MWjNdyvxEfCt14FjEK_jxw" key="condition" value="ConditionSet_1"/>
              </results>
              <results xmi:id="_MWjNeCvxEfCt14FjEK_jxw" resource="IEA15MW_VolturnUS_S1\ConditionSet\1506-20250508093421\ConditionSet_1\simo-dynamic-results-sima.h5" relative="true" name="simo-dynamic-results-sima.h5" type="simo_dynmod_hdf5" time="1746697520067" size="4471687"/>
              <lisFile xmi:id="_MWjNeSvxEfCt14FjEK_jxw" resource="IEA15MW_VolturnUS_S1\ConditionSet\1506-20250508093421\ConditionSet_1\prd-sima.lis" relative="true" name="prd-sima.lis" type="text" time="1746696957704" size="28236" version="4.28.0.r687.7fa6b926e"/>
              <timeSimulationResult xmi:id="_MWjNeivxEfCt14FjEK_jxw" resource="IEA15MW_VolturnUS_S1\ConditionSet\1506-20250508093421\ConditionSet_1\results.tda" relative="true" name="results.tda" type="tda" time="1746697536312" size="114840000"/>
              <riflexLDAT xmi:id="_MWjNeyvxEfCt14FjEK_jxw" resource="IEA15MW_VolturnUS_S1\ConditionSet\1506-20250508093421\ConditionSet_1\sima_dynamic_vis.ldat" relative="true" name="sima_dynamic_vis.ldat" type="simo_dynmod_ldat" time="1746697520139" size="1081404950"/>
              <resFile xmi:id="_MWjNfCvxEfCt14FjEK_jxw" resource="IEA15MW_VolturnUS_S1\ConditionSet\1506-20250508093421\ConditionSet_1\sima_dynmod.res" relative="true" name="sima_dynmod.res" type="text" time="1746697520172" size="58660" version="4.28.0.r687.7fa6b926e"/>
            </dynamic>
          </resultContainers>
          <resultContainers xsi:type="riflex:RIFLEXResultContainer" xmi:id="_HiaRwBFSEfCh_YJJ1irHJw" name="ConditionSet_2: Hs=2.5 Tp=10.0">
            <properties xmi:id="_HiaRwRFSEfCh_YJJ1irHJw" key="condition" value="ConditionSet_2"/>
            <properties xmi:id="_HnDhMhFSEfCh_YJJ1irHJw" key="Yaw_Misalignment" value="0.0 [deg]"/>
            <properties xmi:id="_HnNSMBFSEfCh_YJJ1irHJw" key="timeStep" value="0.25 [s]"/>
            <properties xmi:id="_HnNSMRFSEfCh_YJJ1irHJw" key="torsStiffFac" value="1.0 [-]"/>
            <properties xmi:id="_HnWcIBFSEfCh_YJJ1irHJw" key="LPP" value="80.8 [m]"/>
            <properties xmi:id="_HngNIBFSEfCh_YJJ1irHJw" key="Draught" value="5.769 [L]"/>
            <properties xmi:id="_HngNIRFSEfCh_YJJ1irHJw" key="Hs" value="2.5 [L]"/>
            <properties xmi:id="_Hnp-IBFSEfCh_YJJ1irHJw" key="Tp" value="10.0 [T]"/>
            <properties xmi:id="_HnzvIBFSEfCh_YJJ1irHJw" key="WavDir" value="0.0 [R]"/>
            <properties xmi:id="_Hn4AkBFSEfCh_YJJ1irHJw" key="WinVel" value="0.0 [L/T]"/>
            <properties xmi:id="_Hn7q8BFSEfCh_YJJ1irHJw" key="WinDir" value="0.0 [R]"/>
            <properties xmi:id="_HoBxkBFSEfCh_YJJ1irHJw" key="CurVel_0" value="0.3 [L/T]"/>
            <properties xmi:id="_HoBxkRFSEfCh_YJJ1irHJw" key="CurVel_15" value="0.279 [L/T]"/>
            <properties xmi:id="_HoBxkhFSEfCh_YJJ1irHJw" key="CurVel_24" value="0.225 [L/T]"/>
            <properties xmi:id="_HoLikBFSEfCh_YJJ1irHJw" key="CurDir_0" value="0.0 [R]"/>
            <properties xmi:id="_HoLikRFSEfCh_YJJ1irHJw" key="CurDir_15" value="0.0 [R]"/>
            <properties xmi:id="_HoLikhFSEfCh_YJJ1irHJw" key="CurDir_24" value="0.0 [R]"/>
            <properties xmi:id="_HoUsgBFSEfCh_YJJ1irHJw" key="SimLen" value="7500.0 [T]"/>
            <properties xmi:id="_HoUsgRFSEfCh_YJJ1irHJw" key="Heading" value="180.0 [R]"/>
            <properties xmi:id="_HoUsghFSEfCh_YJJ1irHJw" key="Seed" value="1.0 [-]"/>
            <properties xmi:id="_HoedgBFSEfCh_YJJ1irHJw" key="floaterSF_extra" value="760000.0 [N]"/>
            <properties xmi:id="_Hohg0BFSEfCh_YJJ1irHJw" key="Xref" value="25.875 [m]"/>
            <properties xmi:id="_Hohg0RFSEfCh_YJJ1irHJw" key="Yref" value="-62.817 [m]"/>
            <properties xmi:id="_Hohg0hFSEfCh_YJJ1irHJw" key="Xhook" value="25.875 [-]"/>
            <properties xmi:id="_HorR0BFSEfCh_YJJ1irHJw" key="Yhook" value="-44.817 [m]"/>
            <properties xmi:id="_HorR0RFSEfCh_YJJ1irHJw" key="gangway_distance" value="22.0 [m]"/>
            <properties xmi:id="_HorR0hFSEfCh_YJJ1irHJw" key="doubleVariables" value="Yaw_Misalignment timeStep torsStiffFac LPP Draught Hs Tp WavDir WinVel WinDir CurVel_0 CurVel_15 CurVel_24 CurDir_0 CurDir_15 CurDir_24 SimLen Heading Seed floaterSF_extra Xref Yref Xhook Yhook gangway_distance"/>
            <properties xmi:id="_Ho1C0BFSEfCh_YJJ1irHJw" key="seedWave" value="1"/>
            <properties xmi:id="_Ho5UQBFSEfCh_YJJ1irHJw" key="seedWind" value="1"/>
            <properties xmi:id="_Ho5UQRFSEfCh_YJJ1irHJw" key="storageStep" value="80"/>
            <properties xmi:id="_Ho5UQhFSEfCh_YJJ1irHJw" key="DpOff" value="0"/>
            <properties xmi:id="_HpBQEBFSEfCh_YJJ1irHJw" key="integerVariables" value="seedWave seedWind storageStep DpOff"/>
            <static xmi:id="_xgHL8CvvEfCt14FjEK_jxw" resource="IEA15MW_VolturnUS_S1\ConditionSet\1506-20250508093421\ConditionSet_2" relative="true" name="Static" changeNumber="1194324">
              <properties xmi:id="_xgHL8SvvEfCt14FjEK_jxw" key="runType" value="static"/>
              <properties xmi:id="_xgHL8ivvEfCt14FjEK_jxw" key="inputFile_hashes" value="C:\Users\marku\Documents\DT_prediction_model\DOLPHINN\SIMA_simulation\IEA15MW_VolturnUS_S1\_resources\T1.FEM=1743592015976,3779574;sima://Controller_IEA_Floating1\libdiscon_v260.dll=1743592015967,1122431;sima://Controller_IEA_Floating1\DISCON-UMaineSemi_v260.IN=1743592015957,17742;"/>
              <results xmi:id="_xgHL8yvvEfCt14FjEK_jxw" resource="IEA15MW_VolturnUS_S1\ConditionSet\1506-20250508093421\ConditionSet_2\simo-static-results-sima.h5" relative="true" name="simo-static-results-sima.h5" type="simo_stamod_hdf5" time="1746696926419" size="12664"/>
              <results xsi:type="riflex:MatrixPlotResult" xmi:id="_xgHL9CvvEfCt14FjEK_jxw" resource="IEA15MW_VolturnUS_S1\ConditionSet\1506-20250508093421\ConditionSet_2\sima_stamod.mpf" relative="true" name="sima_stamod.mpf" type="mpf" time="1746696926479" size="258867">
                <properties xmi:id="_xgHL9SvvEfCt14FjEK_jxw" key="condition" value="ConditionSet_2"/>
              </results>
              <lisFile xmi:id="_xgHL9ivvEfCt14FjEK_jxw" resource="IEA15MW_VolturnUS_S1\ConditionSet\1506-20250508093421\ConditionSet_2\prs-sima.lis" relative="true" name="prs-sima.lis" type="text" time="1746696887493" size="640364" version="4.28.0.r687.7fa6b926e"/>
              <staticResult xmi:id="_xgHL9yvvEfCt14FjEK_jxw" resource="IEA15MW_VolturnUS_S1\ConditionSet\1506-20250508093421\ConditionSet_2\psc-sima.lis" relative="true" name="psc-sima.lis" type="psc" time="1746696926418" size="14296"/>
              <riflexLDAT xmi:id="_xgHL-CvvEfCt14FjEK_jxw" resource="IEA15MW_VolturnUS_S1\ConditionSet\1506-20250508093421\ConditionSet_2\sima_static_vis.ldat" relative="true" name="sima_static_vis.ldat" time="1746696926436" size="22699389">
                <properties xmi:id="_xgHL-SvvEfCt14FjEK_jxw" key="loadstep_0" value="20;Volume Forces;Body Forces;Specified Displacements"/>
                <properties xmi:id="_xgHL-ivvEfCt14FjEK_jxw" key="nstep_loading" value="20"/>
                <properties xmi:id="_xgHL-yvvEfCt14FjEK_jxw" key="n_loading" value="1"/>
              </riflexLDAT>
              <inpmodResFile xmi:id="_xgHL_CvvEfCt14FjEK_jxw" resource="IEA15MW_VolturnUS_S1\ConditionSet\1506-20250508093421\ConditionSet_2\sima_inpmod.res" relative="true" name="sima_inpmod.res" type="text" time="1746696874574" size="216061" version="4.28.0.r687.7fa6b926e"/>
              <stamodResFile xmi:id="_xgHL_SvvEfCt14FjEK_jxw" resource="IEA15MW_VolturnUS_S1\ConditionSet\1506-20250508093421\ConditionSet_2\sima_stamod.res" relative="true" name="sima_stamod.res" type="text" time="1746696926496" size="232341" version="4.28.0.r687.7fa6b926e"/>
            </static>
            <dynamic xmi:id="_Jm5wUCvxEfCt14FjEK_jxw" resource="IEA15MW_VolturnUS_S1\ConditionSet\1506-20250508093421\ConditionSet_2" relative="true" name="Dynamic" changeNumber="1194324">
              <properties xmi:id="_Jm5wUSvxEfCt14FjEK_jxw" key="runType" value="dynamic"/>
              <results xmi:id="_Jm5wUivxEfCt14FjEK_jxw" resource="IEA15MW_VolturnUS_S1\ConditionSet\1506-20250508093421\ConditionSet_2\sima_elmfor.bin" relative="true" name="sima_elmfor.bin" time="1746697494711" size="39000"/>
              <results xmi:id="_Jm5wUyvxEfCt14FjEK_jxw" resource="IEA15MW_VolturnUS_S1\ConditionSet\1506-20250508093421\ConditionSet_2\sima_noddis.bin" relative="true" name="sima_noddis.bin" time="1746697494711" size="1080000"/>
              <results xmi:id="_Jm5wVCvxEfCt14FjEK_jxw" resource="IEA15MW_VolturnUS_S1\ConditionSet\1506-20250508093421\ConditionSet_2\sima_supportforce.bin" relative="true" name="sima_supportforce.bin" time="1746697494711" size="4320000"/>
              <results xmi:id="_Jm5wVSvxEfCt14FjEK_jxw" resource="IEA15MW_VolturnUS_S1\ConditionSet\1506-20250508093421\ConditionSet_2\sima_witurb.bin" relative="true" name="sima_witurb.bin" time="1746697494711" size="3120000"/>
              <results xsi:type="riflex:MatrixPlotResult" xmi:id="_Jm5wVivxEfCt14FjEK_jxw" resource="IEA15MW_VolturnUS_S1\ConditionSet\1506-20250508093421\ConditionSet_2\sima_dynmod.mpf" relative="true" name="sima_dynmod.mpf" type="mpf" time="1746697500863" size="111">
                <properties xmi:id="_Jm5wVyvxEfCt14FjEK_jxw" key="condition" value="ConditionSet_2"/>
              </results>
              <results xmi:id="_Jm5wWCvxEfCt14FjEK_jxw" resource="IEA15MW_VolturnUS_S1\ConditionSet\1506-20250508093421\ConditionSet_2\simo-dynamic-results-sima.h5" relative="true" name="simo-dynamic-results-sima.h5" type="simo_dynmod_hdf5" time="1746697500843" size="4471909"/>
              <lisFile xmi:id="_Jm5wWSvxEfCt14FjEK_jxw" resource="IEA15MW_VolturnUS_S1\ConditionSet\1506-20250508093421\ConditionSet_2\prd-sima.lis" relative="true" name="prd-sima.lis" type="text" time="1746696964337" size="28236" version="4.28.0.r687.7fa6b926e"/>
              <timeSimulationResult xmi:id="_Jm5wWivxEfCt14FjEK_jxw" resource="IEA15MW_VolturnUS_S1\ConditionSet\1506-20250508093421\ConditionSet_2\results.tda" relative="true" name="results.tda" type="tda" time="1746697517894" size="114840000"/>
              <riflexLDAT xmi:id="_Jm5wWyvxEfCt14FjEK_jxw" resource="IEA15MW_VolturnUS_S1\ConditionSet\1506-20250508093421\ConditionSet_2\sima_dynamic_vis.ldat" relative="true" name="sima_dynamic_vis.ldat" type="simo_dynmod_ldat" time="1746697500862" size="1081404951"/>
              <resFile xmi:id="_Jm5wXCvxEfCt14FjEK_jxw" resource="IEA15MW_VolturnUS_S1\ConditionSet\1506-20250508093421\ConditionSet_2\sima_dynmod.res" relative="true" name="sima_dynmod.res" type="text" time="1746697500867" size="52633" version="4.28.0.r687.7fa6b926e"/>
            </dynamic>
          </resultContainers>
          <resultContainers xsi:type="riflex:RIFLEXResultContainer" xmi:id="_HiiNkBFSEfCh_YJJ1irHJw" name="ConditionSet_3: Hs=3.0 Tp=11.0">
            <properties xmi:id="_HiiNkRFSEfCh_YJJ1irHJw" key="condition" value="ConditionSet_3"/>
            <properties xmi:id="_HpBQERFSEfCh_YJJ1irHJw" key="Yaw_Misalignment" value="0.0 [deg]"/>
            <properties xmi:id="_HpKaABFSEfCh_YJJ1irHJw" key="timeStep" value="0.25 [s]"/>
            <properties xmi:id="_HpOrcBFSEfCh_YJJ1irHJw" key="torsStiffFac" value="1.0 [-]"/>
            <properties xmi:id="_HpULABFSEfCh_YJJ1irHJw" key="LPP" value="80.8 [m]"/>
            <properties xmi:id="_HpULARFSEfCh_YJJ1irHJw" key="Draught" value="5.769 [L]"/>